%%%%%%%%%%%%%%%%%%%%%%%%%%%%%%%%%%%%%%%%%%%%%%%%%%%%%%%%%%%%%%%%%%%%%%%%%%%%%%%%
%                                                                              %
% SU2 configuration file                                                       %
% Case description: ONERA M6 wing in inviscid, transonic flow                  %
% Author: Thomas D. Economon	      	      	              	       	       %
% Institution: Stanford University				               %
% Date: 2015.08.25                                                             %
% File Version 6.2.0 "Falcon"                                                %
%                                                                              %
%%%%%%%%%%%%%%%%%%%%%%%%%%%%%%%%%%%%%%%%%%%%%%%%%%%%%%%%%%%%%%%%%%%%%%%%%%%%%%%%

% ------------- DIRECT, ADJOINT, AND LINEARIZED PROBLEM DEFINITION ------------%

PHYSICAL_PROBLEM= EULER
MATH_PROBLEM= DIRECT
RESTART_SOL= NO
WRT_BINARY_RESTART= NO
READ_BINARY_RESTART= NO

SINGLEZONE_DRIVER = YES
ITER = 100

% -------------------- COMPRESSIBLE FREE-STREAM DEFINITION --------------------%

MACH_NUMBER= 0.8395
AOA= 2.5
SIDESLIP_ANGLE= 0.0
FREESTREAM_PRESSURE= 101325.0
FREESTREAM_TEMPERATURE= 288.15

% ---------------------- REFERENCE VALUE DEFINITION ---------------------------%

REF_ORIGIN_MOMENT_X = 0.25
REF_ORIGIN_MOMENT_Y = 0.00
REF_ORIGIN_MOMENT_Z = 0.00

REF_LENGTH= 1.0
REF_AREA= 0
REF_DIMENSIONALIZATION= FREESTREAM_VEL_EQ_ONE

% ----------------------- BOUNDARY CONDITION DEFINITION -----------------------%

MARKER_EULER= ( WING )
%MARKER_FAR = (FARFIELD) 
MARKER_FAR =  (XNORMAL_FACES, ZNORMAL_FACES, YNORMAL_FACES)
MARKER_SYM= ( SYMMETRY )

% ------------------------ SURFACES IDENTIFICATION ----------------------------%

MARKER_PLOTTING = ( WING )
MARKER_MONITORING = ( WING )
MARKER_DESIGNING = ( WING )

MARKER_MOVING = ( WING )

% --------------------------- MESH PARAMETERS ---------------------------------%
GRID_MOVEMENT = YES
GRID_MOVEMENT_KIND = ELASTICITY 

DEFORM_NONLINEAR_ITER= 1
DEFORM_LINEAR_SOLVER= CONJUGATE_GRADIENT
DEFORM_LINEAR_SOLVER_PREC= ILU
DEFORM_LINEAR_SOLVER_ITER= 10000
DEFORM_LINEAR_SOLVER_ERROR= 1e-16
DEFORM_STIFFNESS_TYPE= WALL_DISTANCE
DEFORM_COEFF = 1E6

% ------------- COMMON PARAMETERS TO DEFINE THE NUMERICAL METHOD --------------%

NUM_METHOD_GRAD= WEIGHTED_LEAST_SQUARES

OBJECTIVE_FUNCTION= DRAG

CFL_NUMBER= 5.0
CFL_ADAPT= NO
CFL_ADAPT_PARAM= ( 1.5, 0.5, 1.0, 100.0 )
RK_ALPHA_COEFF= ( 0.66667, 0.66667, 1.000000 )

EXT_ITER= 300

LINEAR_SOLVER= FGMRES
LINEAR_SOLVER_PREC= LU_SGS
LINEAR_SOLVER_ERROR= 1E-6
LINEAR_SOLVER_ITER= 2

% ----------------------- SLOPE LIMITER DEFINITION ----------------------------%

VENKAT_LIMITER_COEFF= 0.03
ADJ_SHARP_LIMITER_COEFF= 3.0
REF_SHARP_EDGES= 3.0
SENS_REMOVE_SHARP= YES

% -------------------------- MULTIGRID PARAMETERS -----------------------------%

MGLEVEL= 3
MGCYCLE= W_CYCLE
MG_PRE_SMOOTH= ( 1, 2, 3, 3 )
MG_POST_SMOOTH= ( 0, 0, 0, 0 )
MG_CORRECTION_SMOOTH= ( 0, 0, 0, 0 )
MG_DAMP_RESTRICTION= 0.9
MG_DAMP_PROLONGATION= 0.9

% -------------------- FLOW NUMERICAL METHOD DEFINITION -----------------------%

CONV_NUM_METHOD_FLOW= JST
MUSCL_FLOW= YES
SLOPE_LIMITER_FLOW= NONE
JST_SENSOR_COEFF= ( 0.5, 0.02 )
TIME_DISCRE_FLOW= EULER_IMPLICIT

% ---------------- ADJOINT-FLOW NUMERICAL METHOD DEFINITION -------------------%

CONV_NUM_METHOD_ADJFLOW= JST

MUSCL_ADJFLOW= YES
SLOPE_LIMITER_ADJFLOW= NONE
ADJ_JST_SENSOR_COEFF= ( 0.0, 0.02 )
CFL_REDUCTION_ADJFLOW= 0.5
TIME_DISCRE_ADJFLOW= EULER_IMPLICIT

% --------------------------- CONVERGENCE PARAMETERS --------------------------&

CONV_CRITERIA= RESIDUAL

RESIDUAL_REDUCTION= 8
RESIDUAL_MINVAL= -12

STARTCONV_ITER= 25

CAUCHY_ELEMS= 100
CAUCHY_EPS= 1E-10
CAUCHY_FUNC_FLOW= DRAG

% ------------------------- INPUT/OUTPUT INFORMATION --------------------------%

MESH_FILENAME= mesh_ONERAM6_inv.su2

MESH_OUT_FILENAME= ./Output/mesh_out.su2

SOLUTION_FLOW_FILENAME= ./Output/solution_flow.dat
SOLUTION_ADJ_FILENAME= ./Output/solution_adj.dat

MESH_FORMAT= SU2
OUTPUT_FORMAT= PARAVIEW_BINARY

CONV_FILENAME= ./Output/history

% Output file with the forces breakdown
BREAKDOWN_FILENAME= ./Output/forces_breakdown.dat

RESTART_FLOW_FILENAME= ./Output/restart_flow.dat
RESTART_ADJ_FILENAME= ./Output/restart_adj.dat

VOLUME_FLOW_FILENAME= ./Output/flow

VOLUME_ADJ_FILENAME= ./Output/adjoint
GRAD_OBJFUNC_FILENAME= ./Output/of_grad.dat
SURFACE_FLOW_FILENAME= ./Output/surface_flow
SURFACE_ADJ_FILENAME= ./Output/surface_adjoint

WRT_SOL_FREQ= 100
WRT_CON_FREQ= 1

% ----------------------- DESIGN VARIABLE PARAMETERS --------------------------%

%DV_KIND= FFD_CONTROL_POINT
%DV_MARKER= ( WING )
%DV_PARAM= ( MAIN_BOX, 2, 3, 1, 0.0, 0.0, 1.0 )
%DV_VALUE= 0.05

% -------------------- FREE-FORM DEFORMATION PARAMETERS -----------------------%

%FFD_TOLERANCE= 1E-10
%FFD_ITERATIONS= 500
%FFD_DEFINITION= (MAIN_BOX, -0.0403, 0.0, -0.04836, 0.8463, 0.0, -0.04836, 1.209, 1.2896, -0.04836, 0.6851, 1.2896, -0.04836, -0.0403, 0.0, 0.04836, 0.8463, 0.0, 0.04836, 1.209, 1.2896, 0.04836, 0.6851, 1.2896, 0.04836)
%FFD_DEGREE= (10, 8, 1)
%FFD_CONTINUITY= 2ND_DERIVATIVE

